# generated using pymatgen
data_O2
_symmetry_space_group_name_H-M   'P 1'
_cell_length_a   8.75485600
_cell_length_b   6.22021400
_cell_length_c   4.38982817
_cell_angle_alpha   90.00000000
_cell_angle_beta   115.76698413
_cell_angle_gamma   90.00000000
_symmetry_Int_Tables_number   1
_chemical_formula_structural   O2
_chemical_formula_sum   O16
_cell_volume   215.28761647
_cell_formula_units_Z   8
loop_
 _symmetry_equiv_pos_site_id
 _symmetry_equiv_pos_as_xyz
  1  'x, y, z'
loop_
 _atom_site_type_symbol
 _atom_site_label
 _atom_site_symmetry_multiplicity
 _atom_site_fract_x
 _atom_site_fract_y
 _atom_site_fract_z
 _atom_site_occupancy
  O  O0  1  0.47022600  0.74368500  0.84460900  1
  O  O1  1  0.52977400  0.74368500  0.15539100  1
  O  O2  1  0.52977400  0.25631500  0.15539100  1
  O  O3  1  0.47022600  0.25631500  0.84460900  1
  O  O4  1  0.79225200  0.00000000  0.82168000  1
  O  O5  1  0.20774800  0.00000000  0.17832000  1
  O  O6  1  0.85177800  0.00000000  0.13264100  1
  O  O7  1  0.14822200  0.00000000  0.86735900  1
  O  O8  1  0.97022600  0.24368500  0.84460900  1
  O  O9  1  0.02977400  0.24368500  0.15539100  1
  O  O10  1  0.02977400  0.75631500  0.15539100  1
  O  O11  1  0.97022600  0.75631500  0.84460900  1
  O  O12  1  0.29225200  0.50000000  0.82168000  1
  O  O13  1  0.70774800  0.50000000  0.17832000  1
  O  O14  1  0.35177800  0.50000000  0.13264100  1
  O  O15  1  0.64822200  0.50000000  0.86735900  1
