# generated using pymatgen
data_S
_symmetry_space_group_name_H-M   'P 1'
_cell_length_a   12.32490800
_cell_length_b   14.77307200
_cell_length_c   25.46949000
_cell_angle_alpha   90.00000000
_cell_angle_beta   90.00000000
_cell_angle_gamma   90.00000000
_symmetry_Int_Tables_number   1
_chemical_formula_structural   S
_chemical_formula_sum   S128
_cell_volume   4637.40204683
_cell_formula_units_Z   128
loop_
 _symmetry_equiv_pos_site_id
 _symmetry_equiv_pos_as_xyz
  1  'x, y, z'
loop_
 _atom_site_type_symbol
 _atom_site_label
 _atom_site_symmetry_multiplicity
 _atom_site_fract_x
 _atom_site_fract_y
 _atom_site_fract_z
 _atom_site_occupancy
  S  S0  1  0.76624575  0.31843075  0.33023775  1
  S  S1  1  0.76624575  0.18156925  0.16976225  1
  S  S2  1  0.73375425  0.31843075  0.16976225  1
  S  S3  1  0.73375425  0.18156925  0.33023775  1
  S  S4  1  0.98375425  0.93156925  0.41976225  1
  S  S5  1  0.48375425  0.06843075  0.08023775  1
  S  S6  1  0.51624575  0.93156925  0.08023775  1
  S  S7  1  0.01624575  0.06843075  0.41976225  1
  S  S8  1  0.89343025  0.34431525  0.38073075  1
  S  S9  1  0.89343025  0.15568475  0.11926925  1
  S  S10  1  0.60656975  0.34431525  0.11926925  1
  S  S11  1  0.60656975  0.15568475  0.38073075  1
  S  S12  1  0.85656975  0.90568475  0.36926925  1
  S  S13  1  0.35656975  0.09431525  0.13073075  1
  S  S14  1  0.64343025  0.90568475  0.13073075  1
  S  S15  1  0.14343025  0.09431525  0.36926925  1
  S  S16  1  0.33272175  0.88595875  0.45225575  1
  S  S17  1  0.83272175  0.11404125  0.04774425  1
  S  S18  1  0.16727825  0.88595875  0.04774425  1
  S  S19  1  0.66727825  0.11404125  0.45225575  1
  S  S20  1  0.91727825  0.86404125  0.29774425  1
  S  S21  1  0.41727825  0.13595875  0.20225575  1
  S  S22  1  0.58272175  0.86404125  0.20225575  1
  S  S23  1  0.08272175  0.13595875  0.29774425  1
  S  S24  1  0.32712825  0.27723625  0.00296875  1
  S  S25  1  0.82712825  0.72276375  0.49703125  1
  S  S26  1  0.17287175  0.27723625  0.49703125  1
  S  S27  1  0.67287175  0.72276375  0.00296875  1
  S  S28  1  0.92287175  0.97276375  0.24703125  1
  S  S29  1  0.42287175  0.02723625  0.25296875  1
  S  S30  1  0.57712825  0.97276375  0.25296875  1
  S  S31  1  0.07712825  0.02723625  0.24703125  1
  S  S32  1  0.76624575  0.81843075  0.83023775  1
  S  S33  1  0.76624575  0.68156925  0.66976225  1
  S  S34  1  0.73375425  0.81843075  0.66976225  1
  S  S35  1  0.73375425  0.68156925  0.83023775  1
  S  S36  1  0.98375425  0.43156925  0.91976225  1
  S  S37  1  0.48375425  0.56843075  0.58023775  1
  S  S38  1  0.51624575  0.43156925  0.58023775  1
  S  S39  1  0.01624575  0.56843075  0.91976225  1
  S  S40  1  0.89343025  0.84431525  0.88073075  1
  S  S41  1  0.89343025  0.65568475  0.61926925  1
  S  S42  1  0.60656975  0.84431525  0.61926925  1
  S  S43  1  0.60656975  0.65568475  0.88073075  1
  S  S44  1  0.85656975  0.40568475  0.86926925  1
  S  S45  1  0.35656975  0.59431525  0.63073075  1
  S  S46  1  0.64343025  0.40568475  0.63073075  1
  S  S47  1  0.14343025  0.59431525  0.86926925  1
  S  S48  1  0.33272175  0.38595875  0.95225575  1
  S  S49  1  0.83272175  0.61404125  0.54774425  1
  S  S50  1  0.16727825  0.38595875  0.54774425  1
  S  S51  1  0.66727825  0.61404125  0.95225575  1
  S  S52  1  0.91727825  0.36404125  0.79774425  1
  S  S53  1  0.41727825  0.63595875  0.70225575  1
  S  S54  1  0.58272175  0.36404125  0.70225575  1
  S  S55  1  0.08272175  0.63595875  0.79774425  1
  S  S56  1  0.32712825  0.77723625  0.50296875  1
  S  S57  1  0.82712825  0.22276375  0.99703125  1
  S  S58  1  0.17287175  0.77723625  0.99703125  1
  S  S59  1  0.67287175  0.22276375  0.50296875  1
  S  S60  1  0.92287175  0.47276375  0.74703125  1
  S  S61  1  0.42287175  0.52723625  0.75296875  1
  S  S62  1  0.57712825  0.47276375  0.75296875  1
  S  S63  1  0.07712825  0.52723625  0.74703125  1
  S  S64  1  0.26624575  0.31843075  0.83023775  1
  S  S65  1  0.26624575  0.18156925  0.66976225  1
  S  S66  1  0.23375425  0.31843075  0.66976225  1
  S  S67  1  0.23375425  0.18156925  0.83023775  1
  S  S68  1  0.48375425  0.93156925  0.91976225  1
  S  S69  1  0.98375425  0.06843075  0.58023775  1
  S  S70  1  0.01624575  0.93156925  0.58023775  1
  S  S71  1  0.51624575  0.06843075  0.91976225  1
  S  S72  1  0.39343025  0.34431525  0.88073075  1
  S  S73  1  0.39343025  0.15568475  0.61926925  1
  S  S74  1  0.10656975  0.34431525  0.61926925  1
  S  S75  1  0.10656975  0.15568475  0.88073075  1
  S  S76  1  0.35656975  0.90568475  0.86926925  1
  S  S77  1  0.85656975  0.09431525  0.63073075  1
  S  S78  1  0.14343025  0.90568475  0.63073075  1
  S  S79  1  0.64343025  0.09431525  0.86926925  1
  S  S80  1  0.83272175  0.88595875  0.95225575  1
  S  S81  1  0.33272175  0.11404125  0.54774425  1
  S  S82  1  0.66727825  0.88595875  0.54774425  1
  S  S83  1  0.16727825  0.11404125  0.95225575  1
  S  S84  1  0.41727825  0.86404125  0.79774425  1
  S  S85  1  0.91727825  0.13595875  0.70225575  1
  S  S86  1  0.08272175  0.86404125  0.70225575  1
  S  S87  1  0.58272175  0.13595875  0.79774425  1
  S  S88  1  0.82712825  0.27723625  0.50296875  1
  S  S89  1  0.32712825  0.72276375  0.99703125  1
  S  S90  1  0.67287175  0.27723625  0.99703125  1
  S  S91  1  0.17287175  0.72276375  0.50296875  1
  S  S92  1  0.42287175  0.97276375  0.74703125  1
  S  S93  1  0.92287175  0.02723625  0.75296875  1
  S  S94  1  0.07712825  0.97276375  0.75296875  1
  S  S95  1  0.57712825  0.02723625  0.74703125  1
  S  S96  1  0.26624575  0.81843075  0.33023775  1
  S  S97  1  0.26624575  0.68156925  0.16976225  1
  S  S98  1  0.23375425  0.81843075  0.16976225  1
  S  S99  1  0.23375425  0.68156925  0.33023775  1
  S  S100  1  0.48375425  0.43156925  0.41976225  1
  S  S101  1  0.98375425  0.56843075  0.08023775  1
  S  S102  1  0.01624575  0.43156925  0.08023775  1
  S  S103  1  0.51624575  0.56843075  0.41976225  1
  S  S104  1  0.39343025  0.84431525  0.38073075  1
  S  S105  1  0.39343025  0.65568475  0.11926925  1
  S  S106  1  0.10656975  0.84431525  0.11926925  1
  S  S107  1  0.10656975  0.65568475  0.38073075  1
  S  S108  1  0.35656975  0.40568475  0.36926925  1
  S  S109  1  0.85656975  0.59431525  0.13073075  1
  S  S110  1  0.14343025  0.40568475  0.13073075  1
  S  S111  1  0.64343025  0.59431525  0.36926925  1
  S  S112  1  0.83272175  0.38595875  0.45225575  1
  S  S113  1  0.33272175  0.61404125  0.04774425  1
  S  S114  1  0.66727825  0.38595875  0.04774425  1
  S  S115  1  0.16727825  0.61404125  0.45225575  1
  S  S116  1  0.41727825  0.36404125  0.29774425  1
  S  S117  1  0.91727825  0.63595875  0.20225575  1
  S  S118  1  0.08272175  0.36404125  0.20225575  1
  S  S119  1  0.58272175  0.63595875  0.29774425  1
  S  S120  1  0.82712825  0.77723625  0.00296875  1
  S  S121  1  0.32712825  0.22276375  0.49703125  1
  S  S122  1  0.67287175  0.77723625  0.49703125  1
  S  S123  1  0.17287175  0.22276375  0.00296875  1
  S  S124  1  0.42287175  0.47276375  0.24703125  1
  S  S125  1  0.92287175  0.52723625  0.25296875  1
  S  S126  1  0.07712825  0.47276375  0.25296875  1
  S  S127  1  0.57712825  0.52723625  0.24703125  1
